forcefield_3904
     RDKit          3D

 49 52  0  0  0  0  0  0  0  0999 V2000
    7.1950   23.7840    6.1780 C   0  0  0  0  0  0  0  0  0  0  0  0
    5.7810   23.6440    6.1320 O   0  0  0  0  0  0  0  0  0  0  0  0
    5.0380   24.7500    6.4550 C   0  0  0  0  0  0  0  0  0  0  0  0
    4.8270   25.8570    5.6380 C   0  0  0  0  0  0  0  0  0  0  0  0
    4.0460   26.9150    6.0970 C   0  0  0  0  0  0  0  0  0  0  0  0
    3.4760   26.8670    7.3710 C   0  0  0  0  0  0  0  0  0  0  0  0
    3.6720   25.7630    8.2160 C   0  0  0  0  0  0  0  0  0  0  0  0
    3.0720   25.7780    9.4800 N   0  0  0  0  0  0  0  0  0  0  0  0
    1.8090   25.4470    9.9650 C   0  0  0  0  0  0  0  0  0  0  0  0
    0.8080   26.1730    9.4160 N   0  0  0  0  0  0  0  0  0  0  0  0
   -0.4770   25.9480    9.8040 C   0  0  0  0  0  0  0  0  0  0  0  0
   -1.5110   26.6810    9.2540 O   0  0  0  0  0  0  0  0  0  0  0  0
   -1.0950   27.9270    8.6960 C   0  0  0  0  0  0  0  0  0  0  0  0
   -2.1890   28.9860    8.9110 C   0  0  0  0  0  0  0  0  0  0  0  0
   -1.6300   30.4110    8.7600 C   0  0  0  0  0  0  0  0  0  0  0  0
   -2.7130   31.4650    8.9780 C   0  0  0  0  0  0  0  0  0  0  0  0
   -3.4040   31.2910   10.3270 C   0  0  0  0  0  0  0  0  0  0  0  0
   -3.9520   29.8780   10.4990 C   0  0  0  0  0  0  0  0  0  0  0  0
   -2.8690   28.8240   10.2810 C   0  0  0  0  0  0  0  0  0  0  0  0
   -0.7400   24.9710   10.7610 C   0  0  0  0  0  0  0  0  0  0  0  0
   -1.8850   24.4940   11.3660 N   0  0  0  0  0  0  0  0  0  0  0  0
   -1.4690   23.5570   12.1930 C   0  0  0  0  0  0  0  0  0  0  0  0
   -0.1090   23.4080   12.1480 N   0  0  0  0  0  0  0  0  0  0  0  0
    0.3700   24.3040   11.2380 C   0  0  0  0  0  0  0  0  0  0  0  0
    1.6480   24.4860   10.8910 N   0  0  0  0  0  0  0  0  0  0  0  0
    4.4600   24.7130    7.7330 C   0  0  0  0  0  0  0  0  0  0  0  0
    7.5263   23.8168    7.2264 H   0  0  0  0  0  0  0  0  0  0  0  0
    7.6649   22.9280    5.6716 H   0  0  0  0  0  0  0  0  0  0  0  0
    7.4879   24.7155    5.6716 H   0  0  0  0  0  0  0  0  0  0  0  0
    5.2751   25.8961    4.6342 H   0  0  0  0  0  0  0  0  0  0  0  0
    3.8776   27.7913    5.4538 H   0  0  0  0  0  0  0  0  0  0  0  0
    2.8616   27.7104    7.7192 H   0  0  0  0  0  0  0  0  0  0  0  0
    3.6420   26.0930   10.2520 H   0  0  0  0  0  0  0  0  0  0  0  0
   -0.1673   28.2555    9.1874 H   0  0  0  0  0  0  0  0  0  0  0  0
   -0.9189   27.8009    7.6175 H   0  0  0  0  0  0  0  0  0  0  0  0
   -2.9466   28.8274    8.1294 H   0  0  0  0  0  0  0  0  0  0  0  0
   -0.8310   30.5615    9.5009 H   0  0  0  0  0  0  0  0  0  0  0  0
   -1.2424   30.5222    7.7366 H   0  0  0  0  0  0  0  0  0  0  0  0
   -2.2524   32.4632    8.9392 H   0  0  0  0  0  0  0  0  0  0  0  0
   -3.4689   31.3496    8.1873 H   0  0  0  0  0  0  0  0  0  0  0  0
   -2.6781   31.4924   11.1285 H   0  0  0  0  0  0  0  0  0  0  0  0
   -4.2475   31.9954   10.3749 H   0  0  0  0  0  0  0  0  0  0  0  0
   -4.3529   29.7723   11.5179 H   0  0  0  0  0  0  0  0  0  0  0  0
   -4.7404   29.7213    9.7481 H   0  0  0  0  0  0  0  0  0  0  0  0
   -2.1096   28.9239   11.0705 H   0  0  0  0  0  0  0  0  0  0  0  0
   -3.3427   27.8318   10.3148 H   0  0  0  0  0  0  0  0  0  0  0  0
   -2.1334   22.9663   12.8408 H   0  0  0  0  0  0  0  0  0  0  0  0
    0.4510   22.7600   12.6820 H   0  0  0  0  0  0  0  0  0  0  0  0
    4.6312   23.8345    8.3724 H   0  0  0  0  0  0  0  0  0  0  0  0
  1  2  1  0
  2  3  1  0
  3  4  2  0
  4  5  1  0
  5  6  2  0
  6  7  1  0
  7  8  1  0
  8  9  1  0
  9 10  2  0
 10 11  1  0
 11 12  1  0
 12 13  1  0
 13 14  1  0
 14 15  1  0
 15 16  1  0
 16 17  1  0
 17 18  1  0
 18 19  1  0
 11 20  2  0
 20 21  1  0
 21 22  2  0
 22 23  1  0
 23 24  1  0
 24 25  2  0
  7 26  2  0
 26  3  1  0
 25  9  1  0
 19 14  1  0
 24 20  1  0
  1 27  1  0
  1 28  1  0
  1 29  1  0
  4 30  1  0
  5 31  1  0
  6 32  1  0
  8 33  1  0
 13 34  1  0
 13 35  1  0
 14 36  1  0
 15 37  1  0
 15 38  1  0
 16 39  1  0
 16 40  1  0
 17 41  1  0
 17 42  1  0
 18 43  1  0
 18 44  1  0
 19 45  1  0
 19 46  1  0
 22 47  1  0
 23 48  1  0
 26 49  1  0
M  END
>  <ligandCode>  (1) 
forcefield_3904

>  <ligandName>  (1) 
klr_22

$$$$
forcefield_3905
     RDKit          3D

 49 52  0  0  0  0  0  0  0  0999 V2000
    6.5460   25.1350    3.8360 N   0  0  0  0  0  0  0  0  0  0  0  0
    5.2550   25.5560    3.9960 C   0  0  0  0  0  0  0  0  0  0  0  0
    4.5630   25.8360    3.0240 O   0  0  0  0  0  0  0  0  0  0  0  0
    4.7190   25.6170    5.3820 C   0  0  0  0  0  0  0  0  0  0  0  0
    4.0120   26.7570    5.7730 C   0  0  0  0  0  0  0  0  0  0  0  0
    3.4880   26.8570    7.0690 C   0  0  0  0  0  0  0  0  0  0  0  0
    3.6630   25.8340    8.0050 C   0  0  0  0  0  0  0  0  0  0  0  0
    3.1640   25.8720    9.3110 N   0  0  0  0  0  0  0  0  0  0  0  0
    1.9510   25.5250    9.9030 C   0  0  0  0  0  0  0  0  0  0  0  0
    0.8900   26.1930    9.3960 N   0  0  0  0  0  0  0  0  0  0  0  0
   -0.3560   25.9480    9.8850 C   0  0  0  0  0  0  0  0  0  0  0  0
   -1.4490   26.6220    9.3800 O   0  0  0  0  0  0  0  0  0  0  0  0
   -1.1050   27.7730    8.6070 C   0  0  0  0  0  0  0  0  0  0  0  0
   -1.7010   29.0180    9.2810 C   0  0  0  0  0  0  0  0  0  0  0  0
   -1.5340   30.2520    8.3770 C   0  0  0  0  0  0  0  0  0  0  0  0
   -2.5490   31.3650    8.6570 C   0  0  0  0  0  0  0  0  0  0  0  0
   -3.0430   31.3400   10.0950 C   0  0  0  0  0  0  0  0  0  0  0  0
   -3.7320   30.0170   10.4330 C   0  0  0  0  0  0  0  0  0  0  0  0
   -3.1730   28.8170    9.6630 C   0  0  0  0  0  0  0  0  0  0  0  0
   -0.5160   25.0110   10.9050 C   0  0  0  0  0  0  0  0  0  0  0  0
   -1.5980   24.5310   11.6140 N   0  0  0  0  0  0  0  0  0  0  0  0
   -1.0930   23.6490   12.4490 C   0  0  0  0  0  0  0  0  0  0  0  0
    0.2630   23.5390   12.3140 N   0  0  0  0  0  0  0  0  0  0  0  0
    0.6490   24.4020   11.3310 C   0  0  0  0  0  0  0  0  0  0  0  0
    1.8910   24.6070   10.8850 N   0  0  0  0  0  0  0  0  0  0  0  0
    4.3890   24.7010    7.5990 C   0  0  0  0  0  0  0  0  0  0  0  0
    4.9170   24.5890    6.3060 C   0  0  0  0  0  0  0  0  0  0  0  0
    7.0340   24.6220    4.5560 H   0  0  0  0  0  0  0  0  0  0  0  0
    6.8360   24.9760    2.8790 H   0  0  0  0  0  0  0  0  0  0  0  0
    3.8658   27.5811    5.0592 H   0  0  0  0  0  0  0  0  0  0  0  0
    2.9275   27.7591    7.3554 H   0  0  0  0  0  0  0  0  0  0  0  0
    3.7800   26.2290   10.0270 H   0  0  0  0  0  0  0  0  0  0  0  0
   -0.0105   27.8693    8.5543 H   0  0  0  0  0  0  0  0  0  0  0  0
   -1.5056   27.6720    7.5875 H   0  0  0  0  0  0  0  0  0  0  0  0
   -1.1446   29.1858   10.2149 H   0  0  0  0  0  0  0  0  0  0  0  0
   -0.5231   30.6584    8.5280 H   0  0  0  0  0  0  0  0  0  0  0  0
   -1.7027   29.9170    7.3429 H   0  0  0  0  0  0  0  0  0  0  0  0
   -2.0722   32.3370    8.4626 H   0  0  0  0  0  0  0  0  0  0  0  0
   -3.4156   31.2068    7.9983 H   0  0  0  0  0  0  0  0  0  0  0  0
   -2.1848   31.4776   10.7693 H   0  0  0  0  0  0  0  0  0  0  0  0
   -3.7762   32.1504   10.2201 H   0  0  0  0  0  0  0  0  0  0  0  0
   -3.6091   29.8266   11.5094 H   0  0  0  0  0  0  0  0  0  0  0  0
   -4.7879   30.1213   10.1428 H   0  0  0  0  0  0  0  0  0  0  0  0
   -3.2575   27.9194   10.2932 H   0  0  0  0  0  0  0  0  0  0  0  0
   -3.7539   28.7064    8.7355 H   0  0  0  0  0  0  0  0  0  0  0  0
   -1.6897   23.0698   13.1690 H   0  0  0  0  0  0  0  0  0  0  0  0
    0.8800   22.9330   12.8360 H   0  0  0  0  0  0  0  0  0  0  0  0
    4.5467   23.8809    8.3150 H   0  0  0  0  0  0  0  0  0  0  0  0
    5.4866   23.6927    6.0193 H   0  0  0  0  0  0  0  0  0  0  0  0
  1  2  1  0
  2  3  2  0
  2  4  1  0
  4  5  2  0
  5  6  1  0
  6  7  2  0
  7  8  1  0
  8  9  1  0
  9 10  2  0
 10 11  1  0
 11 12  1  0
 12 13  1  0
 13 14  1  0
 14 15  1  0
 15 16  1  0
 16 17  1  0
 17 18  1  0
 18 19  1  0
 11 20  2  0
 20 21  1  0
 21 22  2  0
 22 23  1  0
 23 24  1  0
 24 25  2  0
  7 26  1  0
 26 27  2  0
 27  4  1  0
 25  9  1  0
 19 14  1  0
 24 20  1  0
  1 28  1  0
  1 29  1  0
  5 30  1  0
  6 31  1  0
  8 32  1  0
 13 33  1  0
 13 34  1  0
 14 35  1  0
 15 36  1  0
 15 37  1  0
 16 38  1  0
 16 39  1  0
 17 40  1  0
 17 41  1  0
 18 42  1  0
 18 43  1  0
 19 44  1  0
 19 45  1  0
 22 46  1  0
 23 47  1  0
 26 48  1  0
 27 49  1  0
M  END
>  <ligandCode>  (2) 
forcefield_3905

>  <ligandName>  (2) 
1oiy-1

$$$$
forcefield_14264
     RDKit          3D

 50 53  0  0  0  0  0  0  0  0999 V2000
    4.9220   23.4040    3.0090 N   0  0  0  0  0  0  0  0  0  0  0  0
    5.8970   24.7200    3.4040 S   0  0  0  0  0  6  0  0  0  0  0  0
    7.2120   24.2200    3.7260 O   0  0  0  0  0  0  0  0  0  0  0  0
    5.6670   25.6980    2.3670 O   0  0  0  0  0  0  0  0  0  0  0  0
    5.1310   25.2890    4.8970 C   0  0  0  0  0  0  0  0  0  0  0  0
    4.3720   26.4580    4.8910 C   0  0  0  0  0  0  0  0  0  0  0  0
    3.7730   26.8990    6.0760 C   0  0  0  0  0  0  0  0  0  0  0  0
    3.9290   26.1970    7.2780 C   0  0  0  0  0  0  0  0  0  0  0  0
    3.3430   26.5790    8.4890 N   0  0  0  0  0  0  0  0  0  0  0  0
    2.1400   26.2820    9.1290 C   0  0  0  0  0  0  0  0  0  0  0  0
    1.0830   26.9670    8.6370 N   0  0  0  0  0  0  0  0  0  0  0  0
   -0.1520   26.7740    9.1730 C   0  0  0  0  0  0  0  0  0  0  0  0
   -1.2430   27.4630    8.6800 O   0  0  0  0  0  0  0  0  0  0  0  0
   -0.9280   28.7750    8.2140 C   0  0  0  0  0  0  0  0  0  0  0  0
   -2.2060   29.6320    8.2420 C   0  0  0  0  0  0  0  0  0  0  0  0
   -3.2120   29.0810    9.2730 C   0  0  0  0  0  0  0  0  0  0  0  0
   -4.1810   30.1570    9.7450 C   0  0  0  0  0  0  0  0  0  0  0  0
   -3.4520   31.3060   10.4440 C   0  0  0  0  0  0  0  0  0  0  0  0
   -2.0250   31.5210    9.9360 C   0  0  0  0  0  0  0  0  0  0  0  0
   -1.8770   31.1190    8.4740 C   0  0  0  0  0  0  0  0  0  0  0  0
   -0.3060   25.8730   10.2240 C   0  0  0  0  0  0  0  0  0  0  0  0
   -1.3770   25.4460   10.9810 N   0  0  0  0  0  0  0  0  0  0  0  0
   -0.8720   24.5730   11.8270 C   0  0  0  0  0  0  0  0  0  0  0  0
    0.4750   24.4190   11.6520 N   0  0  0  0  0  0  0  0  0  0  0  0
    0.8530   25.2430   10.6320 C   0  0  0  0  0  0  0  0  0  0  0  0
    2.0880   25.3990   10.1410 N   0  0  0  0  0  0  0  0  0  0  0  0
    4.7090   25.0260    7.2550 C   0  0  0  0  0  0  0  0  0  0  0  0
    5.3130   24.5730    6.0780 C   0  0  0  0  0  0  0  0  0  0  0  0
    4.1960   23.3080    3.7210 H   0  0  0  0  0  0  0  0  0  0  0  0
    5.4460   22.5390    2.8810 H   0  0  0  0  0  0  0  0  0  0  0  0
    4.2447   27.0304    3.9603 H   0  0  0  0  0  0  0  0  0  0  0  0
    3.1666   27.8167    6.0634 H   0  0  0  0  0  0  0  0  0  0  0  0
    3.8380   27.2640    9.0420 H   0  0  0  0  0  0  0  0  0  0  0  0
   -0.1661   29.2261    8.8668 H   0  0  0  0  0  0  0  0  0  0  0  0
   -0.5358   28.7227    7.1876 H   0  0  0  0  0  0  0  0  0  0  0  0
   -2.6885   29.5690    7.2555 H   0  0  0  0  0  0  0  0  0  0  0  0
   -3.7847   28.2635    8.8106 H   0  0  0  0  0  0  0  0  0  0  0  0
   -2.6467   28.7218   10.1456 H   0  0  0  0  0  0  0  0  0  0  0  0
   -4.7231   30.5555    8.8747 H   0  0  0  0  0  0  0  0  0  0  0  0
   -4.8753   29.7014   10.4664 H   0  0  0  0  0  0  0  0  0  0  0  0
   -4.0232   32.2317   10.2804 H   0  0  0  0  0  0  0  0  0  0  0  0
   -3.3803   31.0434   11.5098 H   0  0  0  0  0  0  0  0  0  0  0  0
   -1.7667   32.5851   10.0403 H   0  0  0  0  0  0  0  0  0  0  0  0
   -1.3511   30.8895   10.5336 H   0  0  0  0  0  0  0  0  0  0  0  0
   -2.5603   31.7316    7.8675 H   0  0  0  0  0  0  0  0  0  0  0  0
   -0.8284   31.2816    8.1841 H   0  0  0  0  0  0  0  0  0  0  0  0
   -1.4619   24.0333   12.5825 H   0  0  0  0  0  0  0  0  0  0  0  0
    1.0910   23.8110   12.1720 H   0  0  0  0  0  0  0  0  0  0  0  0
    4.8468   24.4538    8.1843 H   0  0  0  0  0  0  0  0  0  0  0  0
    5.9261   23.6598    6.0846 H   0  0  0  0  0  0  0  0  0  0  0  0
  1  2  1  0
  2  3  2  0
  2  4  2  0
  2  5  1  0
  5  6  2  0
  6  7  1  0
  7  8  2  0
  8  9  1  0
  9 10  1  0
 10 11  2  0
 11 12  1  0
 12 13  1  0
 13 14  1  0
 14 15  1  0
 15 16  1  0
 16 17  1  0
 17 18  1  0
 18 19  1  0
 19 20  1  0
 12 21  2  0
 21 22  1  0
 22 23  2  0
 23 24  1  0
 24 25  1  0
 25 26  2  0
  8 27  1  0
 27 28  2  0
 28  5  1  0
 26 10  1  0
 20 15  1  0
 25 21  1  0
  1 29  1  0
  1 30  1  0
  6 31  1  0
  7 32  1  0
  9 33  1  0
 14 34  1  0
 14 35  1  0
 15 36  1  0
 16 37  1  0
 16 38  1  0
 17 39  1  0
 17 40  1  0
 18 41  1  0
 18 42  1  0
 19 43  1  0
 19 44  1  0
 20 45  1  0
 20 46  1  0
 23 47  1  0
 24 48  1  0
 27 49  1  0
 28 50  1  0
M  END
>  <ligandCode>  (3) 
forcefield_14264

>  <ligandName>  (3) 
1h1s

$$$$
forcefield_14265
     RDKit          3D

 50 53  0  0  0  0  0  0  0  0999 V2000
    5.9560   25.0880    4.1850 N   0  0  0  0  0  0  0  0  0  0  0  0
    5.6880   24.2300    5.6100 S   0  0  0  0  0  6  0  0  0  0  0  0
    4.9010   23.0800    5.2270 O   0  0  0  0  0  0  0  0  0  0  0  0
    6.9470   24.1160    6.3060 O   0  0  0  0  0  0  0  0  0  0  0  0
    4.6500   25.3510    6.5050 C   0  0  0  0  0  0  0  0  0  0  0  0
    4.3190   26.5790    5.9340 C   0  0  0  0  0  0  0  0  0  0  0  0
    3.4970   27.4490    6.6410 C   0  0  0  0  0  0  0  0  0  0  0  0
    3.0220   27.0950    7.9100 C   0  0  0  0  0  0  0  0  0  0  0  0
    3.3680   25.8770    8.5100 C   0  0  0  0  0  0  0  0  0  0  0  0
    2.9060   25.4620    9.7630 N   0  0  0  0  0  0  0  0  0  0  0  0
    1.6520   25.1280   10.2760 C   0  0  0  0  0  0  0  0  0  0  0  0
    0.6590   25.9320    9.8350 N   0  0  0  0  0  0  0  0  0  0  0  0
   -0.6150   25.7270   10.2650 C   0  0  0  0  0  0  0  0  0  0  0  0
   -1.6410   26.5420    9.8330 O   0  0  0  0  0  0  0  0  0  0  0  0
   -1.2650   27.5510    8.8940 C   0  0  0  0  0  0  0  0  0  0  0  0
   -1.4150   28.9670    9.4830 C   0  0  0  0  0  0  0  0  0  0  0  0
   -2.0650   29.8960    8.4420 C   0  0  0  0  0  0  0  0  0  0  0  0
   -2.7130   31.1080    9.0990 C   0  0  0  0  0  0  0  0  0  0  0  0
   -3.8410   30.6980   10.0490 C   0  0  0  0  0  0  0  0  0  0  0  0
   -3.6490   29.3080   10.6570 C   0  0  0  0  0  0  0  0  0  0  0  0
   -2.1750   28.9600   10.8270 C   0  0  0  0  0  0  0  0  0  0  0  0
   -0.8720   24.6910   11.1610 C   0  0  0  0  0  0  0  0  0  0  0  0
   -2.0060   24.2140   11.7870 N   0  0  0  0  0  0  0  0  0  0  0  0
   -1.5910   23.2030   12.5210 C   0  0  0  0  0  0  0  0  0  0  0  0
   -0.2430   23.0050   12.3980 N   0  0  0  0  0  0  0  0  0  0  0  0
    0.2320   23.9470   11.5330 C   0  0  0  0  0  0  0  0  0  0  0  0
    1.5000   24.1080   11.1380 N   0  0  0  0  0  0  0  0  0  0  0  0
    4.1890   25.0030    7.7800 C   0  0  0  0  0  0  0  0  0  0  0  0
    6.4350   24.4790    3.5180 H   0  0  0  0  0  0  0  0  0  0  0  0
    5.1080   25.4920    3.7910 H   0  0  0  0  0  0  0  0  0  0  0  0
    4.7020   26.8549    4.9404 H   0  0  0  0  0  0  0  0  0  0  0  0
    3.2187   28.4186    6.2023 H   0  0  0  0  0  0  0  0  0  0  0  0
    2.3612   27.7900    8.4488 H   0  0  0  0  0  0  0  0  0  0  0  0
    3.5640   25.4960   10.5280 H   0  0  0  0  0  0  0  0  0  0  0  0
   -0.2150   27.3950    8.6054 H   0  0  0  0  0  0  0  0  0  0  0  0
   -1.9312   27.4715    8.0223 H   0  0  0  0  0  0  0  0  0  0  0  0
   -0.4134   29.3591    9.7135 H   0  0  0  0  0  0  0  0  0  0  0  0
   -1.2920   30.2413    7.7397 H   0  0  0  0  0  0  0  0  0  0  0  0
   -2.8482   29.3296    7.9168 H   0  0  0  0  0  0  0  0  0  0  0  0
   -1.9484   31.6568    9.6685 H   0  0  0  0  0  0  0  0  0  0  0  0
   -3.1423   31.7400    8.3076 H   0  0  0  0  0  0  0  0  0  0  0  0
   -3.8921   31.4320   10.8667 H   0  0  0  0  0  0  0  0  0  0  0  0
   -4.7682   30.6682    9.4579 H   0  0  0  0  0  0  0  0  0  0  0  0
   -4.1367   29.2806   11.6426 H   0  0  0  0  0  0  0  0  0  0  0  0
   -4.0960   28.5721    9.9724 H   0  0  0  0  0  0  0  0  0  0  0  0
   -1.7122   29.6974   11.4994 H   0  0  0  0  0  0  0  0  0  0  0  0
   -2.1140   27.9439   11.2440 H   0  0  0  0  0  0  0  0  0  0  0  0
   -2.2486   22.5915   13.1563 H   0  0  0  0  0  0  0  0  0  0  0  0
    0.3120   22.2980   12.8550 H   0  0  0  0  0  0  0  0  0  0  0  0
    4.4733   24.0335    8.2150 H   0  0  0  0  0  0  0  0  0  0  0  0
  1  2  1  0
  2  3  2  0
  2  4  2  0
  2  5  1  0
  5  6  2  0
  6  7  1  0
  7  8  2  0
  8  9  1  0
  9 10  1  0
 10 11  1  0
 11 12  2  0
 12 13  1  0
 13 14  1  0
 14 15  1  0
 15 16  1  0
 16 17  1  0
 17 18  1  0
 18 19  1  0
 19 20  1  0
 20 21  1  0
 13 22  2  0
 22 23  1  0
 23 24  2  0
 24 25  1  0
 25 26  1  0
 26 27  2  0
  9 28  2  0
 28  5  1  0
 27 11  1  0
 21 16  1  0
 26 22  1  0
  1 29  1  0
  1 30  1  0
  6 31  1  0
  7 32  1  0
  8 33  1  0
 10 34  1  0
 15 35  1  0
 15 36  1  0
 16 37  1  0
 17 38  1  0
 17 39  1  0
 18 40  1  0
 18 41  1  0
 19 42  1  0
 19 43  1  0
 20 44  1  0
 20 45  1  0
 21 46  1  0
 21 47  1  0
 24 48  1  0
 25 49  1  0
 28 50  1  0
M  END
>  <ligandCode>  (4) 
forcefield_14265

>  <ligandName>  (4) 
1oiu

$$$$
